test/data/pti/circulating_case.RAW
0,    100.00, 33, 0, 0, 60.00       / March 21, 2025 13:53:01; Simulator Version 23; BuildDate 2024_8_27


    1,'1           ', 138.0000,1,   1,   1,   1,1.00000000,   0.000000, 1.10000, 0.90000, 1.10000, 0.90000
    3,'3           ', 138.0000,1,   1,   1,   1,1.00000000,   0.000000, 1.10000, 0.90000, 1.10000, 0.90000
    4,'4           ', 345.0000,1,   1,   1,   1,1.00000000,   0.000000, 1.10000, 0.90000, 1.10000, 0.90000
    5,'5           ', 345.0000,1,   1,   1,   1,1.00000000,   0.000000, 1.10000, 0.90000, 1.10000, 0.90000
    6,'6           ', 138.0000,1,   1,   1,   1,1.00000000,   0.000000, 1.10000, 0.90000, 1.10000, 0.90000
    7,'7           ',  20.0000,3,   1,   1,   1,1.00000000,   0.000000, 1.10000, 0.90000, 1.10000, 0.90000
    8,'8           ',  20.0000,2,   1,   1,   1,1.00000000,   0.000000, 1.10000, 0.90000, 1.10000, 0.90000
    9,'9           ',  20.0000,2,   1,   1,   1,1.00000000,   0.000000, 1.10000, 0.90000, 1.10000, 0.90000
   12,'12          ', 345.0000,1,   1,   1,   1,1.00000000,   0.000000, 1.10000, 0.90000, 1.10000, 0.90000
   13,'13          ', 345.0000,1,   1,   1,   1,1.00000000,   0.000000, 1.10000, 0.90000, 1.10000, 0.90000
   14,'14          ', 138.0000,1,   1,   1,   1,1.00000000,   0.000000, 1.10000, 0.90000, 1.10000, 0.90000
   15,'15          ',  20.0000,2,   1,   1,   1,1.00000000,   0.000000, 1.10000, 0.90000, 1.10000, 0.90000
0 / END OF BUS DATA, BEGIN LOAD DATA
0 / END OF LOAD DATA, BEGIN FIXED SHUNT DATA
0 / END OF FIXED SHUNT DATA, BEGIN GENERATOR DATA
    7,'1 ',    -0.000,    -0.000,  9900.000, -9900.000,1.00000,    0,   100.000,   0.00000,   1.00000,   0.00000,   0.00000,1.00000,1,  100.0,  1000.000,     0.000,   1,1.0000,   0,1.0000,   0,1.0000,   0,1.0000,0, 1.0000
    8,'1 ',     0.000,     0.000,  9900.000, -9900.000,1.00000,    0,   100.000,   0.00000,   1.00000,   0.00000,   0.00000,1.00000,1,  100.0,  1000.000,     0.000,   1,1.0000,   0,1.0000,   0,1.0000,   0,1.0000,0, 1.0000
    9,'1 ',     0.000,     0.000,  9900.000, -9900.000,1.00000,    0,   100.000,   0.00000,   1.00000,   0.00000,   0.00000,1.00000,1,  100.0,  1000.000,     0.000,   1,1.0000,   0,1.0000,   0,1.0000,   0,1.0000,0, 1.0000
   15,'1 ',     0.000,     0.000,  9900.000, -9900.000,1.00000,    0,   100.000,   0.00000,   1.00000,   0.00000,   0.00000,1.00000,1,  100.0,  1000.000,     0.000,   1,1.0000,   0,1.0000,   0,1.0000,   0,1.0000,0, 1.0000
0 / END OF GENERATOR DATA, BEGIN BRANCH DATA
     1,     3,'1 ',2.04789E-1,2.04789E0,0.00000E-1,   0.00,   0.00,   0.00,  0.00000,  0.00000,  0.00000,  0.00000, 1,1,   0.00,   1,1.0000,   0,1.0000,   0,1.0000,   0,1.0000
     1,     6,'1 ',2.04789E-1,2.00000E0,0.00000E-1,   0.00,   0.00,   0.00,  0.00000,  0.00000,  0.00000,  0.00000, 1,1,   0.00,   1,1.0000,   0,1.0000,   0,1.0000,   0,1.0000
     4,     5,'1 ',2.04789E-1,2.04789E0,0.00000E-1,   0.00,   0.00,   0.00,  0.00000,  0.00000,  0.00000,  0.00000, 1,1,   0.00,   1,1.0000,   0,1.0000,   0,1.0000,   0,1.0000
    14,     6,'1 ',2.04789E-1,2.04789E0,0.00000E-1,   0.00,   0.00,   0.00,  0.00000,  0.00000,  0.00000,  0.00000, 1,1,   0.00,   1,1.0000,   0,1.0000,   0,1.0000,   0,1.0000
    12,    13,'1 ',2.04789E-1,2.04789E0,0.00000E-1,   0.00,   0.00,   0.00,  0.00000,  0.00000,  0.00000,  0.00000, 1,1,   0.00,   1,1.0000,   0,1.0000,   0,1.0000,   0,1.0000
0 / END OF BRANCH DATA, BEGIN TRANSFORMER DATA
     1,     7,    0,'1 ',1,1,1,0.00000E-1,0.00000E-1,2,'            ', 1,   1,1.0000,   0,1.0000,   0,1.0000,   0,1.0000,'            '
3.00000E-3,2.50000E-2, 100.00
1.000000,138.000,   0.000,   0.00,   0.00,   0.00, 0,     0,1.500000,0.510000,1.500000,0.510000,159, 0, 0.00000, 0.00000,  0.000
1.000000, 20.000
     1,    12,    0,'1 ',1,1,1,0.00000E-1,0.00000E-1,2,'            ', 1,   1,1.0000,   0,1.0000,   0,1.0000,   0,1.0000,'            '
2.50000E-3,3.00000E-2, 100.00
1.000000,138.000,   0.000,   0.00,   0.00,   0.00, 0,     0,1.500000,0.510000,1.500000,0.510000,159, 0, 0.00000, 0.00000,  0.000
1.000000,345.000
     3,     4,    0,'1 ',1,1,1,0.00000E-1,0.00000E-1,2,'            ', 1,   1,1.0000,   0,1.0000,   0,1.0000,   0,1.0000,'            '
1.87500E-2,1.56250E-1, 100.00
0.4000000,138.000,   0.000,   0.00,   0.00,   0.00, 0,     0,0.600000,0.204000,1.500000,0.510000,159, 0, 0.00000, 0.00000,  0.000
0.4000000,138.000
     8,     3,    0,'1 ',1,1,1,0.00000E-1,0.00000E-1,2,'            ', 1,   1,1.0000,   0,1.0000,   0,1.0000,   0,1.0000,'            '
3.00000E-3,2.50000E-2, 100.00
1.000000, 20.000,   0.000,   0.00,   0.00,   0.00, 0,     0,1.500000,0.510000,1.500000,0.510000,159, 0, 0.00000, 0.00000,  0.000
1.000000,138.000
     5,     6,    0,'1 ',1,1,1,0.00000E-1,0.00000E-1,2,'            ', 1,   1,1.0000,   0,1.0000,   0,1.0000,   0,1.0000,'            '
3.00000E-3,2.50000E-2, 100.00
1.000000,138.000,   0.000,   0.00,   0.00,   0.00, 0,     0,1.500000,0.510000,1.500000,0.510000,159, 0, 0.00000, 0.00000,  0.000
1.000000,138.000
     6,     9,    0,'1 ',1,1,1,0.00000E-1,0.00000E-1,2,'            ', 1,   1,1.0000,   0,1.0000,   0,1.0000,   0,1.0000,'            '
3.00000E-3,2.50000E-2, 100.00
1.000000,138.000,   0.000,   0.00,   0.00,   0.00, 0,     0,1.500000,0.510000,1.500000,0.510000,159, 0, 0.00000, 0.00000,  0.000
1.000000, 20.000
    13,    14,    0,'1 ',1,1,1,0.00000E-1,0.00000E-1,2,'            ', 1,   1,1.0000,   0,1.0000,   0,1.0000,   0,1.0000,'            '
2.50000E-3,3.00000E-2, 100.00
1.000000,345.000,   0.000,   0.00,   0.00,   0.00, 0,     0,1.500000,0.510000,1.500000,0.510000,159, 0, 0.00000, 0.00000,  0.000
1.000000,138.000
    14,    15,    0,'1 ',1,1,1,0.00000E-1,0.00000E-1,2,'            ', 1,   1,1.0000,   0,1.0000,   0,1.0000,   0,1.0000,'            '
2.50000E-3,3.00000E-2, 100.00
1.000000,138.000,   0.000,   0.00,   0.00,   0.00, 0,     0,1.500000,0.510000,1.500000,0.510000,159, 0, 0.00000, 0.00000,  0.000
1.000000, 20.000
0 / END OF TRANSFORMER DATA, BEGIN AREA DATA
   1,    0,     0.000,     1.000,'1           '
0 / END OF AREA DATA, BEGIN TWO-TERMINAL DC DATA
0 / END OF TWO-TERMINAL DC DATA, BEGIN VOLTAGE SOURCE CONVERTER DATA
0 / END OF VOLTAGE SOURCE CONVERTER DATA, BEGIN IMPEDANCE CORRECTION DATA
0 / END OF IMPEDANCE CORRECTION DATA, BEGIN MULTI-TERMINAL DC DATA
0 / END OF MULTI-TERMINAL DC DATA, BEGIN MULTI-SECTION LINE DATA
0 / END OF MULTI-SECTION LINE DATA, BEGIN ZONE DATA
   1,'1           '
0 / END OF ZONE DATA, BEGIN INTER-AREA TRANSFER DATA
0 / END OF INTER-AREA TRANSFER DATA, BEGIN OWNER DATA
    1,'1'
0 / END OF OWNER DATA, BEGIN FACTS CONTROL DEVICE DATA
0 / END OF FACTS CONTROL DEVICE DATA, BEGIN SWITCHED SHUNT DATA
0 /END OF SWITCHED SHUNT DATA, BEGIN GNE DEVICE DATA
0 /END OF GNE DEVICE DATA
0 / END OF INDUCTION MACHINE DATA
Q
